Circuit: * C:\Users\j3\Desktop\IE_fotos\Filtro_Passa_Baixa_fc_200hz_Prática_III.asc

.OP point found by inspection.
Ignoring empty pin current: Ix(u1:1)
Ignoring empty pin current: Ix(u1:2)
Ignoring empty pin current: Ix(u1:1)
Ignoring empty pin current: Ix(u1:2)

Date: Thu May  4 16:30:57 2023
Total elapsed time: 0.082 seconds.

tnom = 27
temp = 27
method = modified trap
totiter = 2220
traniter = 2220
tranpoints = 1111
accept = 1077
rejected = 34
matrix size = 6
fillins = 0
solver = Normal
Avg thread counts: 1.4/1.9/1.9/1.4
Matrix Compiler1: 240 bytes object code size  0.3/0.3/[0.3]
Matrix Compiler2: 414 bytes object code size  0.2/0.3/[0.2]

