Circuit: * C:\Users\j3\Desktop\IE_fotos\Filtro_Passa_Alta_fc_200hz_Prática_II.asc

.OP point found by inspection.
Ignoring empty pin current: Ix(u1:1)
Ignoring empty pin current: Ix(u1:2)
Ignoring empty pin current: Ix(u1:1)
Ignoring empty pin current: Ix(u1:2)

Date: Wed May  3 21:20:44 2023
Total elapsed time: 0.055 seconds.

tnom = 27
temp = 27
method = trap
totiter = 0
traniter = 0
tranpoints = 0
accept = 0
rejected = 0
matrix size = 6
fillins = 3
solver = Normal
Avg thread counts: 12.0/0.0/0.0/12.0
Matrix Compiler1:      22 opcodes
Matrix Compiler2:      37 opcodes
